10

C         -1.92515        1.60098        0.01579
H         -1.14951        1.91243        0.71807
H         -2.86740        1.46811        0.55170
H         -1.63578        0.65742       -0.45238
H         -2.04788        2.36638       -0.75370
C          1.85048        1.47025       -0.01701
H          2.93990        1.46285       -0.07821
H          1.45572        2.28450       -0.62924
H          1.54455        1.61553        1.02167
H          1.45739        0.51832       -0.38162
