140

H      23.319852000000001     26.441468000000000     28.558577100000001
H      22.041316000000002     28.340420000000002     25.594038900000001
H      24.294870000000003     28.376384999999999     26.321462099999998
C      25.438031599999999     27.744120299999999     29.572784009999999
C      26.146061199999998     26.665889600000000     30.129753479999998
C      25.477515799999999     25.583343100000000     30.792372510000000
C      26.164594600000001     24.577761700000000     31.384702829999998
C      23.984905599999998     27.818927500000001     29.912248169999998
C      23.031912800000001     27.016908000000001     29.303752889999998
C      21.731083000000002     27.006118499999999     29.744248049999999
C      21.344567600000001     27.800225699999999     30.793382819999998
C      22.270969000000001     28.598648699999998     31.410104910000001
C      23.579588200000000     28.609438200000000     30.978702540000000
H      24.509750000000000     25.599886999999999     30.798578700000000
H      25.667415999999999     23.880759999999999     31.824764999999999
H      21.044809999999998     26.463047000000000     29.278783799999999
H      20.389426000000000     27.815331000000000     31.036723200000001
C      25.438031599999999     29.799879700000002     28.159215990000000
C      26.146061199999998     30.878110400000001     27.602246520000001
C      25.477515799999999     31.960656900000000     26.939627489999999
C      26.164594600000001     32.966238300000001     26.347297170000001
C      23.984905599999998     29.725072500000000     27.819751830000001
C      23.031912800000001     30.527092000000000     28.428247110000001
C      21.731083000000002     30.537881500000001     27.987751950000000
C      21.344567600000001     29.743774299999998     26.938617180000001
C      22.270969000000001     28.945351299999999     26.321895089999998
C      23.579588200000000     28.934561800000001     26.753297459999999
H      24.509750000000000     31.944113000000002     26.933421299999999
H      25.667415999999999     33.663240000000002     25.907235000000000
H      21.044809999999998     31.080953000000001     28.453216200000000
H      20.389426000000000     29.728669000000000     26.695276800000002
C      26.133437000000004     28.771999999999998     28.866000000000000
H      23.319852000000001     31.102531999999997     29.173422899999998
H      22.041316000000002     29.203579999999999     32.137961099999998
H      24.294870000000003     29.167614999999998     31.410537900000001
H      30.400148000000002     26.441468000000000     28.558577100000001
H      31.678684000000004     28.340420000000002     25.594038900000001
H      29.425130000000003     28.376384999999999     26.321462099999998
C      28.281968400000000     27.744120299999999     29.572784009999999
C      27.573938800000001     26.665889600000000     30.129753479999998
C      28.242484200000000     25.583343100000000     30.792372510000000
C      27.555405400000001     24.577761700000000     31.384702829999998
C      29.735094400000001     27.818927500000001     29.912248169999998
C      30.688087200000002     27.016908000000001     29.303752889999998
C      31.988917000000001     27.006118499999999     29.744248049999999
C      32.375432400000001     27.800225699999999     30.793382819999998
C      31.449031000000002     28.598648699999998     31.410104910000001
C      30.140411800000003     28.609438200000000     30.978702540000000
H      29.210250000000002     25.599886999999999     30.798578700000000
H      28.052584000000003     23.880759999999999     31.824764999999999
H      32.675190000000001     26.463047000000000     29.278783799999999
H      33.330573999999999     27.815331000000000     31.036723200000001
C      28.281968400000000     29.799879700000002     28.159215990000000
C      27.573938800000001     30.878110400000001     27.602246520000001
C      28.242484200000000     31.960656900000000     26.939627489999999
C      27.555405400000001     32.966238300000001     26.347297170000001
C      29.735094400000001     29.725072500000000     27.819751830000001
C      30.688087200000002     30.527092000000000     28.428247110000001
C      31.988917000000001     30.537881500000001     27.987751950000000
C      32.375432400000001     29.743774299999998     26.938617180000001
C      31.449031000000002     28.945351299999999     26.321895089999998
C      30.140411800000003     28.934561800000001     26.753297459999999
H      29.210250000000002     31.944113000000002     26.933421299999999
H      28.052584000000003     33.663240000000002     25.907235000000000
H      32.675190000000001     31.080953000000001     28.453216200000000
H      33.330573999999999     29.728669000000000     26.695276800000002
C      27.586562999999998     28.771999999999998     28.866000000000000
H      30.400147999999998     31.102531999999997     29.173422899999998
H      31.678684000000001     29.203579999999999     32.137961099999998
H      29.425129999999999     29.167614999999998     31.410537900000001
C      26.164594600000001     13.788261700000001     33.563797170000001
H      25.667415999999999     13.091260000000000     33.123734999999996
C      26.133437000000001     17.982499999999998     36.082499999999996
C      25.438031599999999     19.010379700000001     36.789284010000003
C      25.438031599999999     16.954620299999998     35.375715990000003
C      26.146061199999998     20.088610400000000     37.346253480000001
C      26.146061199999998     15.876389600000001     34.818746519999998
C      25.477515799999999     21.171156900000000     38.008872510000003
C      25.477515799999999     14.793843100000002     34.156127490000003
C      23.984905599999998     18.935572499999999     37.128748169999994
C      23.984905599999998     17.029427500000001     35.036251829999998
C      23.031912800000001     19.737591999999999     36.520252890000002
C      23.031912800000001     16.227408000000000     35.644747109999997
C      21.731083000000002     19.748381500000001     36.960748049999999
C      21.731083000000002     16.216618499999999     35.204251950000000
C      21.344567600000001     18.954274300000002     38.009882820000001
C      21.344567600000001     17.010725699999998     34.155117179999998
C      22.270969000000001     18.155851299999998     38.626604909999998
C      22.270969000000001     17.809148699999998     33.538395090000002
C      23.579588200000000     18.145061800000001     38.195202539999997
C      23.579588200000000     17.819938199999999     33.969797460000002
H      24.509750000000000     21.154613000000001     38.015078700000004
H      24.509750000000000     14.810387000000000     34.149921300000003
H      23.319851999999997     20.313032000000000     35.775077099999997
H      23.319851999999997     15.651968000000002     36.389922900000002
H      21.044809999999998     20.291453000000001     36.495283799999996
H      21.044809999999998     15.673547000000001     35.669716199999996
H      20.389426000000000     18.939169000000000     38.253223200000001
H      20.389426000000000     17.025831000000000     33.911776799999998
H      22.041315999999998     17.550919999999998     39.354461100000002
H      22.041315999999998     18.414079999999998     32.810538899999997
H      24.294870000000000     17.586884999999999     38.627037899999998
H      24.294870000000000     18.378115000000001     33.537962100000001
C      26.164594600000001     22.176738300000000     38.601202829999998
H      25.667415999999999     22.873740000000002     39.041264999999996
C      27.555405400000001     13.788261700000001     33.563797170000001
H      28.052584000000000     13.091260000000000     33.123734999999996
C      27.586563000000002     17.982499999999998     36.082499999999996
C      28.281968400000000     16.954620299999998     35.375715990000003
C      28.281968400000000     19.010379700000001     36.789284010000003
C      27.573938800000001     15.876389600000001     34.818746519999998
C      27.573938800000001     20.088610400000000     37.346253480000001
C      28.242484200000000     14.793843100000002     34.156127490000003
C      28.242484200000000     21.171156900000000     38.008872510000003
C      29.735094400000001     17.029427500000001     35.036251829999998
C      29.735094400000001     18.935572499999999     37.128748169999994
C      30.688087200000002     16.227408000000000     35.644747109999997
C      30.688087200000002     19.737591999999999     36.520252890000002
C      31.988917000000001     16.216618499999999     35.204251950000000
C      31.988917000000001     19.748381500000001     36.960748049999999
C      32.375432400000001     17.010725699999998     34.155117179999998
C      32.375432400000001     18.954274300000002     38.009882820000001
C      31.449031000000002     17.809148699999998     33.538395090000002
C      31.449031000000002     18.155851299999998     38.626604909999998
C      30.140411800000003     17.819938199999999     33.969797460000002
C      30.140411800000003     18.145061800000001     38.195202539999997
H      29.210250000000002     14.810387000000000     34.149921300000003
H      29.210250000000002     21.154613000000001     38.015078700000004
H      30.400148000000002     15.651968000000002     36.389922900000002
H      30.400148000000002     20.313032000000000     35.775077099999997
H      32.675190000000001     15.673547000000001     35.669716199999996
H      32.675190000000001     20.291453000000001     36.495283799999996
H      33.330573999999999     17.025831000000000     33.911776799999998
H      33.330573999999999     18.939169000000000     38.253223200000001
H      31.678684000000001     18.414079999999998     32.810538899999997
H      31.678684000000001     17.550919999999998     39.354461100000002
H      29.425130000000003     18.378115000000001     33.537962100000001
H      29.425129999999999     17.586884999999999     38.627037899999998
C      27.555405400000001     22.176738300000000     38.601202829999998
H      28.052584000000003     22.873740000000002     39.041264999999996
