140

H      23.319852000000001     26.441468000000000     28.558577100000001
H      22.041316000000002     28.340420000000002     25.594038900000001
H      24.294870000000003     28.376384999999999     26.321462099999998
C      25.438031599999999     27.744120299999999     29.572784009999999
C      26.146061199999998     26.665889600000000     30.129753479999998
C      25.477515799999999     25.583343100000000     30.792372510000000
C      26.164594600000001     24.577761700000000     31.384702829999998
C      23.984905599999998     27.818927500000001     29.912248169999998
C      23.031912800000001     27.016908000000001     29.303752889999998
C      21.731083000000002     27.006118499999999     29.744248049999999
C      21.344567600000001     27.800225699999999     30.793382819999998
C      22.270969000000001     28.598648699999998     31.410104910000001
C      23.579588200000000     28.609438200000000     30.978702540000000
H      24.509750000000000     25.599886999999999     30.798578700000000
H      25.667415999999999     23.880759999999999     31.824764999999999
H      21.044809999999998     26.463047000000000     29.278783799999999
H      20.389426000000000     27.815331000000000     31.036723200000001
C      25.438031599999999     29.799879700000002     28.159215990000000
C      26.146061199999998     30.878110400000001     27.602246520000001
C      25.477515799999999     31.960656900000000     26.939627489999999
C      26.164594600000001     32.966238300000001     26.347297170000001
C      23.984905599999998     29.725072500000000     27.819751830000001
C      23.031912800000001     30.527092000000000     28.428247110000001
C      21.731083000000002     30.537881500000001     27.987751950000000
C      21.344567600000001     29.743774299999998     26.938617180000001
C      22.270969000000001     28.945351299999999     26.321895089999998
C      23.579588200000000     28.934561800000001     26.753297459999999
H      24.509750000000000     31.944113000000002     26.933421299999999
H      25.667415999999999     33.663240000000002     25.907235000000000
H      21.044809999999998     31.080953000000001     28.453216200000000
H      20.389426000000000     29.728669000000000     26.695276800000002
C      26.133437000000004     28.771999999999998     28.866000000000000
H      23.319852000000001     31.102531999999997     29.173422899999998
H      22.041316000000002     29.203579999999999     32.137961099999998
H      24.294870000000003     29.167614999999998     31.410537900000001
H      30.400148000000002     26.441468000000000     28.558577100000001
H      31.678684000000004     28.340420000000002     25.594038900000001
H      29.425130000000003     28.376384999999999     26.321462099999998
C      28.281968400000000     27.744120299999999     29.572784009999999
C      27.573938800000001     26.665889600000000     30.129753479999998
C      28.242484200000000     25.583343100000000     30.792372510000000
C      27.555405400000001     24.577761700000000     31.384702829999998
C      29.735094400000001     27.818927500000001     29.912248169999998
C      30.688087200000002     27.016908000000001     29.303752889999998
C      31.988917000000001     27.006118499999999     29.744248049999999
C      32.375432400000001     27.800225699999999     30.793382819999998
C      31.449031000000002     28.598648699999998     31.410104910000001
C      30.140411800000003     28.609438200000000     30.978702540000000
H      29.210250000000002     25.599886999999999     30.798578700000000
H      28.052584000000003     23.880759999999999     31.824764999999999
H      32.675190000000001     26.463047000000000     29.278783799999999
H      33.330573999999999     27.815331000000000     31.036723200000001
C      28.281968400000000     29.799879700000002     28.159215990000000
C      27.573938800000001     30.878110400000001     27.602246520000001
C      28.242484200000000     31.960656900000000     26.939627489999999
C      27.555405400000001     32.966238300000001     26.347297170000001
C      29.735094400000001     29.725072500000000     27.819751830000001
C      30.688087200000002     30.527092000000000     28.428247110000001
C      31.988917000000001     30.537881500000001     27.987751950000000
C      32.375432400000001     29.743774299999998     26.938617180000001
C      31.449031000000002     28.945351299999999     26.321895089999998
C      30.140411800000003     28.934561800000001     26.753297459999999
H      29.210250000000002     31.944113000000002     26.933421299999999
H      28.052584000000003     33.663240000000002     25.907235000000000
H      32.675190000000001     31.080953000000001     28.453216200000000
H      33.330573999999999     29.728669000000000     26.695276800000002
C      27.586562999999998     28.771999999999998     28.866000000000000
H      30.400147999999998     31.102531999999997     29.173422899999998
H      31.678684000000001     29.203579999999999     32.137961099999998
H      29.425129999999999     29.167614999999998     31.410537900000001
C      14.125405400000000     35.367261700000000     16.951702829999999
C      12.734594600000001     35.367261700000000     16.951702829999999
H      14.622584000000002     34.670259999999999     17.391764999999999
H      12.237416000000001     34.670259999999999     17.391764999999999
C      14.851968400000001     40.589379699999995     13.726215990000000
C      12.008031600000002     40.589379699999995     13.726215990000000
C      14.143938800000003     41.667610400000001     13.169246520000000
C      12.716061200000002     41.667610400000001     13.169246520000000
C      14.812484200000002     42.750156900000000     12.506627490000000
C      12.047515800000001     42.750156900000000     12.506627490000000
C      16.305094400000002     40.514572500000000     13.386751830000001
C      10.554905600000001     40.514572500000000     13.386751830000001
C      17.258087199999999     41.316592000000000     13.995247110000001
C       9.601912800000003     41.316592000000000     13.995247110000001
C      18.558916999999997     41.327381500000001     13.554751950000000
C       8.301083000000002     41.327381500000001     13.554751950000000
C      18.945432399999998     40.533274300000002     12.505617180000000
C       7.914567600000003     40.533274300000002     12.505617180000000
C      18.019030999999998     39.734851300000003     11.888895090000000
C       8.840969000000001     39.734851300000003     11.888895090000000
C      16.710411799999999     39.724061800000001     12.320297460000001
C      10.149588200000002     39.724061800000001     12.320297460000001
H      15.780250000000002     42.733612999999998     12.500421299999999
H      11.079750000000001     42.733612999999998     12.500421299999999
H      16.970148000000002     37.230967999999997     14.125577099999999
H       9.889852000000001     37.230967999999997     14.125577099999999
H      19.245190000000001     41.870452999999998     14.020216200000000
H       7.614810000000002     41.870452999999998     14.020216200000000
H      19.900573999999999     40.518169000000000     12.262276800000000
H       6.959426000000002     40.518169000000000     12.262276800000000
H      18.248684000000001     39.129919999999998     11.161038899999999
H       8.611316000000002     39.129919999999998     11.161038899999999
H      15.995130000000001     39.165885000000003     11.888462100000000
H      10.864870000000002     39.165885000000003     11.888462100000000
C      14.156563000000004     39.561499999999995     14.433000000000000
C      12.703437000000003     39.561499999999995     14.433000000000000
C      14.851968400000002     38.533620299999995     15.139784010000000
C      12.008031600000004     38.533620299999995     15.139784010000000
C      14.143938800000004     37.455389599999997     15.696753480000000
C      12.716061200000004     37.455389599999997     15.696753480000000
C      14.812484200000004     36.372843099999997     16.359372510000000
C      12.047515800000003     36.372843099999997     16.359372510000000
C      16.305094400000002     38.608427499999998     15.479248170000000
C      10.554905600000003     38.608427499999998     15.479248170000000
C      17.258087199999999     37.806407999999998     14.870752890000000
C       9.601912800000004     37.806407999999998     14.870752890000000
C      18.558916999999997     37.795618500000003     15.311248050000000
C       8.301083000000004     37.795618500000003     15.311248050000000
C      18.945432399999998     38.589725700000002     16.360382819999998
C       7.914567600000003     38.589725700000002     16.360382819999998
C      18.019030999999998     39.388148700000002     16.977104910000001
C       8.840969000000003     39.388148700000002     16.977104910000001
C      16.710411799999999     39.398938199999996     16.545702540000001
C      10.149588200000004     39.398938199999996     16.545702540000001
H      15.780250000000004     36.389386999999999     16.365578700000000
H      11.079750000000002     36.389386999999999     16.365578700000000
H      16.970148000000002     41.892032000000000     14.740422900000000
H       9.889852000000003     41.892032000000000     14.740422900000000
H      19.245190000000001     37.252547000000000     14.845783800000000
H       7.614810000000002     37.252547000000000     14.845783800000000
H      19.900573999999999     38.604830999999997     16.603723200000001
H       6.959426000000002     38.604830999999997     16.603723200000001
H      18.248684000000001     39.993079999999999     17.704961099999998
H       8.611316000000004     39.993079999999999     17.704961099999998
H      15.995130000000003     39.957115000000002     16.977537900000002
H      10.864870000000003     39.957115000000002     16.977537900000002
C      14.125405400000000     43.755738299999997     11.914297170000001
C      12.734594600000001     43.755738299999997     11.914297170000001
H      14.622584000000002     44.452739999999999     11.474235000000000
H      12.237416000000001     44.452739999999999     11.474235000000000
