140

H      23.319852000000001     26.441468000000000     28.558577100000001
H      22.041316000000002     28.340420000000002     25.594038900000001
H      24.294870000000003     28.376384999999999     26.321462099999998
C      25.438031599999999     27.744120299999999     29.572784009999999
C      26.146061199999998     26.665889600000000     30.129753479999998
C      25.477515799999999     25.583343100000000     30.792372510000000
C      26.164594600000001     24.577761700000000     31.384702829999998
C      23.984905599999998     27.818927500000001     29.912248169999998
C      23.031912800000001     27.016908000000001     29.303752889999998
C      21.731083000000002     27.006118499999999     29.744248049999999
C      21.344567600000001     27.800225699999999     30.793382819999998
C      22.270969000000001     28.598648699999998     31.410104910000001
C      23.579588200000000     28.609438200000000     30.978702540000000
H      24.509750000000000     25.599886999999999     30.798578700000000
H      25.667415999999999     23.880759999999999     31.824764999999999
H      21.044809999999998     26.463047000000000     29.278783799999999
H      20.389426000000000     27.815331000000000     31.036723200000001
C      25.438031599999999     29.799879700000002     28.159215990000000
C      26.146061199999998     30.878110400000001     27.602246520000001
C      25.477515799999999     31.960656900000000     26.939627489999999
C      26.164594600000001     32.966238300000001     26.347297170000001
C      23.984905599999998     29.725072500000000     27.819751830000001
C      23.031912800000001     30.527092000000000     28.428247110000001
C      21.731083000000002     30.537881500000001     27.987751950000000
C      21.344567600000001     29.743774299999998     26.938617180000001
C      22.270969000000001     28.945351299999999     26.321895089999998
C      23.579588200000000     28.934561800000001     26.753297459999999
H      24.509750000000000     31.944113000000002     26.933421299999999
H      25.667415999999999     33.663240000000002     25.907235000000000
H      21.044809999999998     31.080953000000001     28.453216200000000
H      20.389426000000000     29.728669000000000     26.695276800000002
C      26.133437000000004     28.771999999999998     28.866000000000000
H      23.319852000000001     31.102531999999997     29.173422899999998
H      22.041316000000002     29.203579999999999     32.137961099999998
H      24.294870000000003     29.167614999999998     31.410537900000001
H      30.400148000000002     26.441468000000000     28.558577100000001
H      31.678684000000004     28.340420000000002     25.594038900000001
H      29.425130000000003     28.376384999999999     26.321462099999998
C      28.281968400000000     27.744120299999999     29.572784009999999
C      27.573938800000001     26.665889600000000     30.129753479999998
C      28.242484200000000     25.583343100000000     30.792372510000000
C      27.555405400000001     24.577761700000000     31.384702829999998
C      29.735094400000001     27.818927500000001     29.912248169999998
C      30.688087200000002     27.016908000000001     29.303752889999998
C      31.988917000000001     27.006118499999999     29.744248049999999
C      32.375432400000001     27.800225699999999     30.793382819999998
C      31.449031000000002     28.598648699999998     31.410104910000001
C      30.140411800000003     28.609438200000000     30.978702540000000
H      29.210250000000002     25.599886999999999     30.798578700000000
H      28.052584000000003     23.880759999999999     31.824764999999999
H      32.675190000000001     26.463047000000000     29.278783799999999
H      33.330573999999999     27.815331000000000     31.036723200000001
C      28.281968400000000     29.799879700000002     28.159215990000000
C      27.573938800000001     30.878110400000001     27.602246520000001
C      28.242484200000000     31.960656900000000     26.939627489999999
C      27.555405400000001     32.966238300000001     26.347297170000001
C      29.735094400000001     29.725072500000000     27.819751830000001
C      30.688087200000002     30.527092000000000     28.428247110000001
C      31.988917000000001     30.537881500000001     27.987751950000000
C      32.375432400000001     29.743774299999998     26.938617180000001
C      31.449031000000002     28.945351299999999     26.321895089999998
C      30.140411800000003     28.934561800000001     26.753297459999999
H      29.210250000000002     31.944113000000002     26.933421299999999
H      28.052584000000003     33.663240000000002     25.907235000000000
H      32.675190000000001     31.080953000000001     28.453216200000000
H      33.330573999999999     29.728669000000000     26.695276800000002
C      27.586562999999998     28.771999999999998     28.866000000000000
H      30.400147999999998     31.102531999999997     29.173422899999998
H      31.678684000000001     29.203579999999999     32.137961099999998
H      29.425129999999999     29.167614999999998     31.410537900000001
C      12.008031600000002     42.130120300000002      6.509715990000000
C      14.851968400000001     42.130120300000002      6.509715990000000
C      12.716061200000002     41.051889599999996      5.952746520000001
C      14.143938800000003     41.051889599999996      5.952746520000001
C      12.047515800000001     39.969343099999996      5.290127490000001
C      14.812484200000002     39.969343099999996      5.290127490000001
C      12.734594600000001     38.963761699999999      4.697797170000000
C      14.125405400000000     38.963761699999999      4.697797170000000
C      10.554905600000001     42.204927499999997      6.170251830000000
C      16.305094400000002     42.204927499999997      6.170251830000000
C       9.601912800000003     41.402907999999996      6.778747109999999
C      17.258087199999999     41.402907999999996      6.778747109999999
C       8.301083000000002     41.392118499999995      6.338251950000000
C      18.558916999999997     41.392118499999995      6.338251950000000
C       7.914567600000002     42.186225699999994      5.289117180000000
C      18.945432399999998     42.186225699999994      5.289117180000000
C       8.840969000000001     42.984648699999994      4.672395089999999
C      18.019030999999998     42.984648699999994      4.672395089999999
C      10.149588200000002     42.995438199999995      5.103797460000000
C      16.710411799999999     42.995438199999995      5.103797460000000
H      11.079750000000001     39.985886999999998      5.283921299999999
H      15.780250000000002     39.985886999999998      5.283921299999999
H      12.237416000000001     38.266759999999998      4.257735000000000
H      14.622584000000002     38.266759999999998      4.257735000000000
H       9.889852000000001     40.827467999999996      7.523922900000000
H      16.970148000000002     40.827467999999996      7.523922900000000
H       7.614810000000001     40.849046999999999      6.803716199999999
H      19.245190000000001     40.849046999999999      6.803716199999999
H       6.959426000000001     42.201330999999996      5.045776800000001
H      19.900573999999999     42.201330999999996      5.045776800000001
H       8.611316000000002     42.726419999999997     10.488461100000000
H      18.248684000000001     42.726419999999997     10.488461100000000
H      10.864870000000002     42.762384999999995      9.761037900000000
H      15.995130000000001     42.762384999999995      9.761037900000000
C      12.703437000000001     43.158000000000001      7.216500000000000
C      14.156563000000002     43.158000000000001      7.216500000000000
C      12.008031600000002     44.185879700000001      7.923284010000000
C      14.851968400000001     44.185879700000001      7.923284010000000
C      12.716061200000002     45.264110400000000      8.480253480000000
C      14.143938800000003     45.264110400000000      8.480253480000000
C      12.047515800000001     46.346656899999999      9.142872510000000
C      14.812484200000002     46.346656899999999      9.142872510000000
C      12.734594600000001     47.352238299999996      9.735202829999999
C      14.125405400000000     47.352238299999996      9.735202829999999
C      10.554905600000001     44.111072499999999      8.262748169999998
C      16.305094400000002     44.111072499999999      8.262748169999998
C       9.601912800000003     44.913091999999999      7.654252890000000
C      17.258087199999999     44.913091999999999      7.654252890000000
C       8.301083000000002     44.923881499999993      8.094748050000000
C      18.558916999999997     44.923881499999993      8.094748050000000
C       7.914567600000004     44.129774299999994      9.143882820000000
C      18.945432399999998     44.129774299999994      9.143882820000000
C       8.840969000000001     43.331351299999994      9.760604910000000
C      18.019030999999998     43.331351299999994      9.760604910000000
C      10.149588200000002     43.320561800000000      9.329202539999999
C      16.710411799999999     43.320561800000000      9.329202539999999
H      11.079750000000001     46.330112999999997      9.149078700000000
H      15.780250000000002     46.330112999999997      9.149078700000000
H      12.237416000000001     48.049239999999998     10.175265000000000
H      14.622584000000002     48.049239999999998     10.175265000000000
H       9.889852000000001     45.488531999999999      6.909077100000000
H      16.970148000000002     45.488531999999999      6.909077100000000
H       7.614810000000003     45.466952999999997      7.629283800000000
H      19.245190000000001     45.466952999999997      7.629283800000000
H       6.959426000000003     44.114668999999999      9.387223199999999
H      19.900573999999999     44.114668999999999      9.387223199999999
H       8.611316000000002     43.589579999999998      3.944538900000000
H      18.248684000000001     43.589579999999998      3.944538900000000
H      10.864870000000002     43.553614999999994      4.671962100000000
H      15.995130000000001     43.553614999999994      4.671962100000000
