140

H      23.319852000000001     26.441468000000000     28.558577100000001
H      22.041316000000002     28.340420000000002     25.594038900000001
H      24.294870000000003     28.376384999999999     26.321462099999998
C      25.438031599999999     27.744120299999999     29.572784009999999
C      26.146061199999998     26.665889600000000     30.129753479999998
C      25.477515799999999     25.583343100000000     30.792372510000000
C      26.164594600000001     24.577761700000000     31.384702829999998
C      23.984905599999998     27.818927500000001     29.912248169999998
C      23.031912800000001     27.016908000000001     29.303752889999998
C      21.731083000000002     27.006118499999999     29.744248049999999
C      21.344567600000001     27.800225699999999     30.793382819999998
C      22.270969000000001     28.598648699999998     31.410104910000001
C      23.579588200000000     28.609438200000000     30.978702540000000
H      24.509750000000000     25.599886999999999     30.798578700000000
H      25.667415999999999     23.880759999999999     31.824764999999999
H      21.044809999999998     26.463047000000000     29.278783799999999
H      20.389426000000000     27.815331000000000     31.036723200000001
C      25.438031599999999     29.799879700000002     28.159215990000000
C      26.146061199999998     30.878110400000001     27.602246520000001
C      25.477515799999999     31.960656900000000     26.939627489999999
C      26.164594600000001     32.966238300000001     26.347297170000001
C      23.984905599999998     29.725072500000000     27.819751830000001
C      23.031912800000001     30.527092000000000     28.428247110000001
C      21.731083000000002     30.537881500000001     27.987751950000000
C      21.344567600000001     29.743774299999998     26.938617180000001
C      22.270969000000001     28.945351299999999     26.321895089999998
C      23.579588200000000     28.934561800000001     26.753297459999999
H      24.509750000000000     31.944113000000002     26.933421299999999
H      25.667415999999999     33.663240000000002     25.907235000000000
H      21.044809999999998     31.080953000000001     28.453216200000000
H      20.389426000000000     29.728669000000000     26.695276800000002
C      26.133437000000004     28.771999999999998     28.866000000000000
H      23.319852000000001     31.102531999999997     29.173422899999998
H      22.041316000000002     29.203579999999999     32.137961099999998
H      24.294870000000003     29.167614999999998     31.410537900000001
H      30.400148000000002     26.441468000000000     28.558577100000001
H      31.678684000000004     28.340420000000002     25.594038900000001
H      29.425130000000003     28.376384999999999     26.321462099999998
C      28.281968400000000     27.744120299999999     29.572784009999999
C      27.573938800000001     26.665889600000000     30.129753479999998
C      28.242484200000000     25.583343100000000     30.792372510000000
C      27.555405400000001     24.577761700000000     31.384702829999998
C      29.735094400000001     27.818927500000001     29.912248169999998
C      30.688087200000002     27.016908000000001     29.303752889999998
C      31.988917000000001     27.006118499999999     29.744248049999999
C      32.375432400000001     27.800225699999999     30.793382819999998
C      31.449031000000002     28.598648699999998     31.410104910000001
C      30.140411800000003     28.609438200000000     30.978702540000000
H      29.210250000000002     25.599886999999999     30.798578700000000
H      28.052584000000003     23.880759999999999     31.824764999999999
H      32.675190000000001     26.463047000000000     29.278783799999999
H      33.330573999999999     27.815331000000000     31.036723200000001
C      28.281968400000000     29.799879700000002     28.159215990000000
C      27.573938800000001     30.878110400000001     27.602246520000001
C      28.242484200000000     31.960656900000000     26.939627489999999
C      27.555405400000001     32.966238300000001     26.347297170000001
C      29.735094400000001     29.725072500000000     27.819751830000001
C      30.688087200000002     30.527092000000000     28.428247110000001
C      31.988917000000001     30.537881500000001     27.987751950000000
C      32.375432400000001     29.743774299999998     26.938617180000001
C      31.449031000000002     28.945351299999999     26.321895089999998
C      30.140411800000003     28.934561800000001     26.753297459999999
H      29.210250000000002     31.944113000000002     26.933421299999999
H      28.052584000000003     33.663240000000002     25.907235000000000
H      32.675190000000001     31.080953000000001     28.453216200000000
H      33.330573999999999     29.728669000000000     26.695276800000002
C      27.586562999999998     28.771999999999998     28.866000000000000
H      30.400147999999998     31.102531999999997     29.173422899999998
H      31.678684000000001     29.203579999999999     32.137961099999998
H      29.425129999999999     29.167614999999998     31.410537900000001
H      23.319851999999997     26.441468000000000     42.991577100000001
H      22.041315999999998     28.340420000000002     40.027038900000001
H      24.294870000000000     28.376384999999999     40.754462099999998
C      25.438031600000002     27.744120299999999     44.005784009999999
C      26.146061200000002     26.665889600000000     44.562753479999998
C      25.477515800000003     25.583343100000000     45.225372510000000
C      26.164594600000004     24.577761700000000     45.817702830000002
C      23.984905600000001     27.818927500000001     44.345248169999998
C      23.031912800000004     27.016908000000001     43.736752889999998
C      21.731083000000005     27.006118499999999     44.177248050000003
C      21.344567600000005     27.800225699999999     45.226382819999998
C      22.270969000000004     28.598648699999998     45.843104910000001
C      23.579588200000003     28.609438200000000     45.411702540000000
H      24.509750000000004     25.599886999999999     45.231578700000000
H      25.667416000000003     23.880759999999999     46.257764999999999
H      21.044810000000002     26.463047000000000     43.711783799999999
H      20.389426000000004     27.815331000000000     45.469723200000004
C      25.438031600000002     29.799879699999998     42.592215990000000
C      26.146061200000002     30.878110400000001     42.035246520000001
C      25.477515800000003     31.960656900000000     41.372627489999999
C      26.164594600000004     32.966238300000001     40.780297169999997
C      23.984905600000001     29.725072500000000     42.252751830000001
C      23.031912800000004     30.527092000000000     42.861247110000001
C      21.731083000000005     30.537881499999997     42.420751949999996
C      21.344567600000005     29.743774299999998     41.371617180000001
C      22.270969000000004     28.945351299999999     40.754895089999998
C      23.579588200000003     28.934561800000001     41.186297459999999
H      24.509750000000004     31.944112999999998     41.366421299999999
H      25.667416000000003     33.663240000000002     40.340235000000000
H      21.044810000000002     31.080953000000001     42.886216200000000
H      20.389426000000004     29.728669000000000     41.128276800000002
C      26.133437000000004     28.771999999999998     43.298999999999999
H      23.319852000000001     31.102532000000000     43.606422899999998
H      22.041316000000002     29.203579999999999     46.570961099999998
H      24.294870000000003     29.167614999999998     45.843537900000001
H      30.400148000000002     26.441468000000000     42.991577100000001
H      31.678684000000001     28.340420000000002     40.027038900000001
H      29.425130000000003     28.376384999999999     40.754462099999998
C      28.281968400000004     27.744120299999999     44.005784009999999
C      27.573938800000001     26.665889600000000     44.562753479999998
C      28.242484200000003     25.583343100000000     45.225372510000000
C      27.555405400000001     24.577761700000000     45.817702830000002
C      29.735094400000001     27.818927500000001     44.345248169999998
C      30.688087200000002     27.016908000000001     43.736752889999998
C      31.988917000000001     27.006118499999999     44.177248050000003
C      32.375432400000001     27.800225699999999     45.226382819999998
C      31.449031000000002     28.598648699999998     45.843104910000001
C      30.140411800000003     28.609438200000000     45.411702540000000
H      29.210250000000002     25.599886999999999     45.231578700000000
H      28.052584000000003     23.880759999999999     46.257764999999999
H      32.675190000000001     26.463047000000000     43.711783799999999
H      33.330573999999999     27.815331000000000     45.469723200000004
C      28.281968400000000     29.799879699999998     42.592215990000000
C      27.573938800000001     30.878110400000001     42.035246520000001
C      28.242484200000000     31.960656900000000     41.372627489999999
C      27.555405400000001     32.966238300000001     40.780297169999997
C      29.735094400000001     29.725072500000000     42.252751830000001
C      30.688087200000002     30.527092000000000     42.861247110000001
C      31.988917000000001     30.537881499999997     42.420751949999996
C      32.375432400000001     29.743774299999998     41.371617180000001
C      31.449031000000002     28.945351299999999     40.754895089999998
C      30.140411799999999     28.934561800000001     41.186297459999999
H      29.210250000000002     31.944112999999998     41.366421299999999
H      28.052584000000000     33.663240000000002     40.340235000000000
H      32.675190000000001     31.080953000000001     42.886216200000000
H      33.330573999999999     29.728669000000000     41.128276800000002
C      27.586563000000002     28.771999999999998     43.298999999999999
H      30.400148000000002     31.102532000000000     43.606422899999998
H      31.678684000000001     29.203579999999999     46.570961099999998
H      29.425129999999999     29.167614999999998     45.843537900000001
