140

H      23.319852000000001     26.441468000000000     28.558577100000001
H      22.041316000000002     28.340420000000002     25.594038900000001
H      24.294870000000003     28.376384999999999     26.321462099999998
C      25.438031599999999     27.744120299999999     29.572784009999999
C      26.146061199999998     26.665889600000000     30.129753479999998
C      25.477515799999999     25.583343100000000     30.792372510000000
C      26.164594600000001     24.577761700000000     31.384702829999998
C      23.984905599999998     27.818927500000001     29.912248169999998
C      23.031912800000001     27.016908000000001     29.303752889999998
C      21.731083000000002     27.006118499999999     29.744248049999999
C      21.344567600000001     27.800225699999999     30.793382819999998
C      22.270969000000001     28.598648699999998     31.410104910000001
C      23.579588200000000     28.609438200000000     30.978702540000000
H      24.509750000000000     25.599886999999999     30.798578700000000
H      25.667415999999999     23.880759999999999     31.824764999999999
H      21.044809999999998     26.463047000000000     29.278783799999999
H      20.389426000000000     27.815331000000000     31.036723200000001
C      25.438031599999999     29.799879700000002     28.159215990000000
C      26.146061199999998     30.878110400000001     27.602246520000001
C      25.477515799999999     31.960656900000000     26.939627489999999
C      26.164594600000001     32.966238300000001     26.347297170000001
C      23.984905599999998     29.725072500000000     27.819751830000001
C      23.031912800000001     30.527092000000000     28.428247110000001
C      21.731083000000002     30.537881500000001     27.987751950000000
C      21.344567600000001     29.743774299999998     26.938617180000001
C      22.270969000000001     28.945351299999999     26.321895089999998
C      23.579588200000000     28.934561800000001     26.753297459999999
H      24.509750000000000     31.944113000000002     26.933421299999999
H      25.667415999999999     33.663240000000002     25.907235000000000
H      21.044809999999998     31.080953000000001     28.453216200000000
H      20.389426000000000     29.728669000000000     26.695276800000002
C      26.133437000000004     28.771999999999998     28.866000000000000
H      23.319852000000001     31.102531999999997     29.173422899999998
H      22.041316000000002     29.203579999999999     32.137961099999998
H      24.294870000000003     29.167614999999998     31.410537900000001
H      30.400148000000002     26.441468000000000     28.558577100000001
H      31.678684000000004     28.340420000000002     25.594038900000001
H      29.425130000000003     28.376384999999999     26.321462099999998
C      28.281968400000000     27.744120299999999     29.572784009999999
C      27.573938800000001     26.665889600000000     30.129753479999998
C      28.242484200000000     25.583343100000000     30.792372510000000
C      27.555405400000001     24.577761700000000     31.384702829999998
C      29.735094400000001     27.818927500000001     29.912248169999998
C      30.688087200000002     27.016908000000001     29.303752889999998
C      31.988917000000001     27.006118499999999     29.744248049999999
C      32.375432400000001     27.800225699999999     30.793382819999998
C      31.449031000000002     28.598648699999998     31.410104910000001
C      30.140411800000003     28.609438200000000     30.978702540000000
H      29.210250000000002     25.599886999999999     30.798578700000000
H      28.052584000000003     23.880759999999999     31.824764999999999
H      32.675190000000001     26.463047000000000     29.278783799999999
H      33.330573999999999     27.815331000000000     31.036723200000001
C      28.281968400000000     29.799879700000002     28.159215990000000
C      27.573938800000001     30.878110400000001     27.602246520000001
C      28.242484200000000     31.960656900000000     26.939627489999999
C      27.555405400000001     32.966238300000001     26.347297170000001
C      29.735094400000001     29.725072500000000     27.819751830000001
C      30.688087200000002     30.527092000000000     28.428247110000001
C      31.988917000000001     30.537881500000001     27.987751950000000
C      32.375432400000001     29.743774299999998     26.938617180000001
C      31.449031000000002     28.945351299999999     26.321895089999998
C      30.140411800000003     28.934561800000001     26.753297459999999
H      29.210250000000002     31.944113000000002     26.933421299999999
H      28.052584000000003     33.663240000000002     25.907235000000000
H      32.675190000000001     31.080953000000001     28.453216200000000
H      33.330573999999999     29.728669000000000     26.695276800000002
C      27.586562999999998     28.771999999999998     28.866000000000000
H      30.400147999999998     31.102531999999997     29.173422899999998
H      31.678684000000001     29.203579999999999     32.137961099999998
H      29.425129999999999     29.167614999999998     31.410537900000001
C      12.008031600000002     13.358120300000000     20.942715990000000
C      14.851968400000001     13.358120300000000     20.942715990000000
C      12.716061200000002     12.279889600000001     20.385746520000001
C      14.143938800000003     12.279889600000001     20.385746520000001
C      12.047515800000001     11.197343100000001     19.723127490000000
C      14.812484200000002     11.197343100000001     19.723127490000000
C      12.734594600000001     10.191761700000001     19.130797170000001
C      14.125405400000000     10.191761700000001     19.130797170000001
C      10.554905600000001     13.432927500000000     20.603251829999998
C      16.305094400000002     13.432927500000000     20.603251829999998
C       9.601912800000003     12.630908000000002     21.211747109999997
C      17.258087199999999     12.630908000000002     21.211747109999997
C       8.301083000000002     12.620118500000000     20.771251950000000
C      18.558916999999997     12.620118500000000     20.771251950000000
C       7.914567600000002     13.414225699999999     19.722117179999998
C      18.945432399999998     13.414225699999999     19.722117179999998
C       8.840969000000001     14.212648699999999     19.105395089999998
C      18.019030999999998     14.212648699999999     19.105395089999998
C      10.149588200000002     14.223438200000000     19.536797459999999
C      16.710411799999999     14.223438200000000     19.536797459999999
H      11.079750000000001     11.213887000000000     19.716921299999999
H      15.780250000000002     11.213887000000000     19.716921299999999
H      12.237416000000001      9.494759999999999     18.690735000000000
H      14.622584000000002      9.494759999999999     18.690735000000000
H       9.889852000000001     12.055468000000001     21.956922899999999
H      16.970148000000002     12.055468000000001     21.956922899999999
H       7.614810000000000     12.077047000000000     21.236716200000000
H      19.245190000000001     12.077047000000000     21.236716200000000
H       6.959426000000001     13.429331000000001     19.478776799999999
H      19.900573999999999     13.429331000000001     19.478776799999999
H       8.611316000000002     13.954420000000001     24.921461100000002
H      18.248684000000001     13.954420000000001     24.921461100000002
H      10.864870000000002     13.990385000000000     24.194037899999998
H      15.995130000000001     13.990385000000000     24.194037899999998
C      12.703437000000001     14.385999999999999     21.649500000000000
C      14.156563000000002     14.385999999999999     21.649500000000000
C      12.008031600000002     15.413879699999999     22.356284010000000
C      14.851968400000001     15.413879699999999     22.356284010000000
C      12.716061200000002     16.492110400000001     22.913253480000002
C      14.143938800000003     16.492110400000001     22.913253480000002
C      12.047515800000001     17.574656900000001     23.575872510000000
C      14.812484200000002     17.574656900000001     23.575872510000000
C      12.734594600000001     18.580238299999998     24.168202829999998
C      14.125405400000000     18.580238299999998     24.168202829999998
C      10.554905600000001     15.339072500000000     22.695748169999998
C      16.305094400000002     15.339072500000000     22.695748169999998
C       9.601912800000003     16.141092000000000     22.087252889999998
C      17.258087199999999     16.141092000000000     22.087252889999998
C       8.301083000000002     16.151881499999998     22.527748050000000
C      18.558916999999997     16.151881499999998     22.527748050000000
C       7.914567600000003     15.357774299999999     23.576882820000002
C      18.945432399999998     15.357774299999999     23.576882820000002
C       8.840969000000001     14.559351299999999     24.193604909999998
C      18.019030999999998     14.559351299999999     24.193604909999998
C      10.149588200000002     14.548561800000000     23.762202539999997
C      16.710411799999999     14.548561800000000     23.762202539999997
H      11.079750000000001     17.558112999999999     23.582078700000000
H      15.780250000000002     17.558112999999999     23.582078700000000
H      12.237416000000001     19.277239999999999     24.608264999999999
H      14.622584000000002     19.277239999999999     24.608264999999999
H       9.889852000000001     16.716532000000001     21.342077100000001
H      16.970148000000002     16.716532000000001     21.342077100000001
H       7.614810000000002     16.694952999999998     22.062283799999999
H      19.245190000000001     16.694952999999998     22.062283799999999
H       6.959426000000002     15.342668999999999     23.820223200000001
H      19.900573999999999     15.342668999999999     23.820223200000001
H       8.611316000000002     14.817580000000000     18.377538900000001
H      18.248684000000001     14.817580000000000     18.377538900000001
H      10.864870000000002     14.781614999999999     19.104962100000002
H      15.995130000000001     14.781614999999999     19.104962100000002
