140

H      23.319852000000001     26.441468000000000     28.558577100000001
H      22.041316000000002     28.340420000000002     25.594038900000001
H      24.294870000000003     28.376384999999999     26.321462099999998
C      25.438031599999999     27.744120299999999     29.572784009999999
C      26.146061199999998     26.665889600000000     30.129753479999998
C      25.477515799999999     25.583343100000000     30.792372510000000
C      26.164594600000001     24.577761700000000     31.384702829999998
C      23.984905599999998     27.818927500000001     29.912248169999998
C      23.031912800000001     27.016908000000001     29.303752889999998
C      21.731083000000002     27.006118499999999     29.744248049999999
C      21.344567600000001     27.800225699999999     30.793382819999998
C      22.270969000000001     28.598648699999998     31.410104910000001
C      23.579588200000000     28.609438200000000     30.978702540000000
H      24.509750000000000     25.599886999999999     30.798578700000000
H      25.667415999999999     23.880759999999999     31.824764999999999
H      21.044809999999998     26.463047000000000     29.278783799999999
H      20.389426000000000     27.815331000000000     31.036723200000001
C      25.438031599999999     29.799879700000002     28.159215990000000
C      26.146061199999998     30.878110400000001     27.602246520000001
C      25.477515799999999     31.960656900000000     26.939627489999999
C      26.164594600000001     32.966238300000001     26.347297170000001
C      23.984905599999998     29.725072500000000     27.819751830000001
C      23.031912800000001     30.527092000000000     28.428247110000001
C      21.731083000000002     30.537881500000001     27.987751950000000
C      21.344567600000001     29.743774299999998     26.938617180000001
C      22.270969000000001     28.945351299999999     26.321895089999998
C      23.579588200000000     28.934561800000001     26.753297459999999
H      24.509750000000000     31.944113000000002     26.933421299999999
H      25.667415999999999     33.663240000000002     25.907235000000000
H      21.044809999999998     31.080953000000001     28.453216200000000
H      20.389426000000000     29.728669000000000     26.695276800000002
C      26.133437000000004     28.771999999999998     28.866000000000000
H      23.319852000000001     31.102531999999997     29.173422899999998
H      22.041316000000002     29.203579999999999     32.137961099999998
H      24.294870000000003     29.167614999999998     31.410537900000001
H      30.400148000000002     26.441468000000000     28.558577100000001
H      31.678684000000004     28.340420000000002     25.594038900000001
H      29.425130000000003     28.376384999999999     26.321462099999998
C      28.281968400000000     27.744120299999999     29.572784009999999
C      27.573938800000001     26.665889600000000     30.129753479999998
C      28.242484200000000     25.583343100000000     30.792372510000000
C      27.555405400000001     24.577761700000000     31.384702829999998
C      29.735094400000001     27.818927500000001     29.912248169999998
C      30.688087200000002     27.016908000000001     29.303752889999998
C      31.988917000000001     27.006118499999999     29.744248049999999
C      32.375432400000001     27.800225699999999     30.793382819999998
C      31.449031000000002     28.598648699999998     31.410104910000001
C      30.140411800000003     28.609438200000000     30.978702540000000
H      29.210250000000002     25.599886999999999     30.798578700000000
H      28.052584000000003     23.880759999999999     31.824764999999999
H      32.675190000000001     26.463047000000000     29.278783799999999
H      33.330573999999999     27.815331000000000     31.036723200000001
C      28.281968400000000     29.799879700000002     28.159215990000000
C      27.573938800000001     30.878110400000001     27.602246520000001
C      28.242484200000000     31.960656900000000     26.939627489999999
C      27.555405400000001     32.966238300000001     26.347297170000001
C      29.735094400000001     29.725072500000000     27.819751830000001
C      30.688087200000002     30.527092000000000     28.428247110000001
C      31.988917000000001     30.537881500000001     27.987751950000000
C      32.375432400000001     29.743774299999998     26.938617180000001
C      31.449031000000002     28.945351299999999     26.321895089999998
C      30.140411800000003     28.934561800000001     26.753297459999999
H      29.210250000000002     31.944113000000002     26.933421299999999
H      28.052584000000003     33.663240000000002     25.907235000000000
H      32.675190000000001     31.080953000000001     28.453216200000000
H      33.330573999999999     29.728669000000000     26.695276800000002
C      27.586562999999998     28.771999999999998     28.866000000000000
H      30.400147999999998     31.102531999999997     29.173422899999998
H      31.678684000000001     29.203579999999999     32.137961099999998
H      29.425129999999999     29.167614999999998     31.410537900000001
C      38.868031600000002     27.744120299999999     35.375715990000003
C      41.711968400000003     27.744120299999999     35.375715990000003
C      39.576061199999998     26.665889600000000     34.818746519999998
C      41.003938800000000     26.665889600000000     34.818746519999998
C      38.907515799999999     25.583343100000000     34.156127490000003
C      41.672484200000000     25.583343100000000     34.156127490000003
C      39.594594600000001     24.577761700000000     33.563797170000001
C      40.985405399999998     24.577761700000000     33.563797170000001
C      37.414905599999997     27.818927500000001     35.036251829999998
C      43.165094400000001     27.818927500000001     35.036251829999998
C      36.461912800000000     27.016908000000001     35.644747109999997
C      44.118087199999998     27.016908000000001     35.644747109999997
C      35.161083000000005     27.006118499999999     35.204251950000000
C      45.418916999999993     27.006118499999999     35.204251950000000
C      34.774567599999997     27.800225699999999     34.155117179999998
C      45.805432400000001     27.800225699999999     34.155117179999998
C      35.700969000000001     28.598648699999998     33.538395090000002
C      44.879030999999998     28.598648699999998     33.538395090000002
C      37.009588200000003     28.609438200000000     33.969797460000002
C      43.570411800000002     28.609438200000000     33.969797460000002
H      37.939750000000004     25.599886999999999     34.149921300000003
H      42.640250000000002     25.599886999999999     34.149921300000003
H      39.097416000000003     23.880760000000002     33.123734999999996
H      41.482584000000003     23.880760000000002     33.123734999999996
H      36.749852000000004     26.441468000000000     36.389922900000002
H      43.830148000000001     26.441468000000000     36.389922900000002
H      34.474809999999998     26.463047000000000     35.669716199999996
H      46.105190000000000     26.463047000000000     35.669716199999996
H      33.819426000000000     27.815331000000000     33.911776799999998
H      46.760573999999998     27.815331000000000     33.911776799999998
H      35.471316000000002     28.340420000000002     39.354461100000002
H      45.108683999999997     28.340420000000002     39.354461100000002
H      37.724870000000003     28.376384999999999     38.627037899999998
H      42.855130000000003     28.376384999999999     38.627037899999998
C      39.563437000000000     28.771999999999998     36.082499999999996
C      41.016562999999998     28.771999999999998     36.082499999999996
C      38.868031600000002     29.799879699999998     36.789284010000003
C      41.711968399999996     29.799879699999998     36.789284010000003
C      39.576061199999998     30.878110399999997     37.346253480000001
C      41.003938800000000     30.878110399999997     37.346253480000001
C      38.907515799999999     31.960656900000000     38.008872510000003
C      41.672484200000000     31.960656900000000     38.008872510000003
C      39.594594600000001     32.966238300000001     38.601202829999998
C      40.985405399999998     32.966238300000001     38.601202829999998
C      37.414905599999997     29.725072500000000     37.128748169999994
C      43.165094400000001     29.725072500000000     37.128748169999994
C      36.461912800000000     30.527092000000000     36.520252890000002
C      44.118087199999998     30.527092000000000     36.520252890000002
C      35.161082999999998     30.537881499999997     36.960748049999999
C      45.418916999999993     30.537881499999997     36.960748049999999
C      34.774567599999997     29.743774299999998     38.009882820000001
C      45.805432400000001     29.743774299999998     38.009882820000001
C      35.700969000000001     28.945351299999999     38.626604909999998
C      44.879030999999998     28.945351299999999     38.626604909999998
C      37.009588199999996     28.934561799999997     38.195202539999997
C      43.570411800000002     28.934561799999997     38.195202539999997
H      37.939749999999997     31.944112999999998     38.015078700000004
H      42.640250000000002     31.944112999999998     38.015078700000004
H      39.097415999999996     33.663240000000002     39.041264999999996
H      41.482584000000003     33.663240000000002     39.041264999999996
H      36.749851999999997     31.102532000000000     35.775077099999997
H      43.830148000000001     31.102532000000000     35.775077099999997
H      34.474809999999998     31.080952999999997     36.495283799999996
H      46.105190000000000     31.080952999999997     36.495283799999996
H      33.819426000000000     29.728669000000000     38.253223200000001
H      46.760573999999998     29.728669000000000     38.253223200000001
H      35.471316000000002     29.203579999999999     32.810538899999997
H      45.108683999999997     29.203579999999999     32.810538899999997
H      37.724869999999996     29.167614999999998     33.537962100000001
H      42.855130000000003     29.167614999999998     33.537962100000001
