140

H      23.319851999999997     12.055467999999999     14.125577099999999
H      22.041315999999998     13.954419999999999     11.161038899999999
H      24.294870000000000     13.990385000000000     11.888462100000000
C      25.438031599999999     13.358120300000000     15.139784010000000
C      26.146061199999998     12.279889600000001     15.696753480000000
C      25.477515799999999     11.197343100000001     16.359372510000000
C      26.164594600000001     10.191761700000001     16.951702829999999
C      23.984905599999998     13.432927500000000     15.479248170000000
C      23.031912800000001     12.630908000000002     14.870752890000000
C      21.731083000000002     12.620118500000000     15.311248050000000
C      21.344567600000001     13.414225699999999     16.360382819999998
C      22.270969000000001     14.212648699999999     16.977104910000001
C      23.579588200000000     14.223438200000000     16.545702540000001
H      24.509750000000000     11.213887000000000     16.365578700000000
H      25.667415999999999      9.494759999999999     17.391764999999999
H      21.044809999999998     12.077047000000000     14.845783800000000
H      20.389426000000000     13.429331000000001     16.603723200000001
C      25.438031599999999     15.413879700000001     13.726215990000000
C      26.146061199999998     16.492110400000001     13.169246520000000
C      25.477515799999999     17.574656900000001     12.506627490000000
C      26.164594600000001     18.580238299999998     11.914297170000001
C      23.984905599999998     15.339072500000000     13.386751830000001
C      23.031912800000001     16.141092000000000     13.995247110000001
C      21.731083000000002     16.151881500000002     13.554751950000000
C      21.344567600000001     15.357774299999999     12.505617180000000
C      22.270969000000001     14.559351299999999     11.888895090000000
C      23.579588200000000     14.548561800000000     12.320297460000001
H      24.509750000000000     17.558112999999999     12.500421299999999
H      25.667415999999999     19.277239999999999     11.474235000000000
H      21.044809999999998     16.694952999999998     14.020216200000000
H      20.389426000000000     15.342669000000001     12.262276800000000
C      26.133437000000001     14.385999999999999     14.433000000000000
H      23.319851999999997     16.716532000000001     14.740422900000000
H      22.041315999999998     14.817580000000000     17.704961099999998
H      24.294870000000000     14.781614999999999     16.977537900000002
H      30.400148000000002     12.055467999999999     14.125577099999999
H      31.678684000000001     13.954419999999999     11.161038899999999
H      29.425129999999999     13.990385000000000     11.888462100000000
C      28.281968400000000     13.358120300000000     15.139784010000000
C      27.573938800000001     12.279889600000001     15.696753480000000
C      28.242484200000000     11.197343100000001     16.359372510000000
C      27.555405399999998     10.191761700000001     16.951702829999999
C      29.735094400000001     13.432927500000000     15.479248170000000
C      30.688087199999998     12.630908000000002     14.870752890000000
C      31.988917000000001     12.620118500000000     15.311248050000000
C      32.375432400000001     13.414225699999999     16.360382819999998
C      31.449030999999998     14.212648699999999     16.977104910000001
C      30.140411799999999     14.223438200000000     16.545702540000001
H      29.210249999999998     11.213887000000000     16.365578700000000
H      28.052584000000000      9.494759999999999     17.391764999999999
H      32.675190000000001     12.077047000000000     14.845783800000000
H      33.330573999999999     13.429331000000001     16.603723200000001
C      28.281968400000000     15.413879700000001     13.726215990000000
C      27.573938800000001     16.492110400000001     13.169246520000000
C      28.242484200000000     17.574656900000001     12.506627490000000
C      27.555405400000001     18.580238299999998     11.914297170000001
C      29.735094400000001     15.339072500000000     13.386751830000001
C      30.688087200000002     16.141092000000000     13.995247110000001
C      31.988917000000001     16.151881500000002     13.554751950000000
C      32.375432400000001     15.357774299999999     12.505617180000000
C      31.449031000000002     14.559351299999999     11.888895090000000
C      30.140411799999999     14.548561800000000     12.320297460000001
H      29.210250000000002     17.558112999999999     12.500421299999999
H      28.052584000000000     19.277239999999999     11.474235000000000
H      32.675190000000001     16.694952999999998     14.020216200000000
H      33.330573999999999     15.342669000000001     12.262276800000000
C      27.586562999999998     14.385999999999999     14.433000000000000
H      30.400147999999998     16.716532000000001     14.740422900000000
H      31.678684000000001     14.817580000000000     17.704961099999998
H      29.425129999999999     14.781614999999999     16.977537900000002
C      26.164594600000001      6.595261700000001     19.130797170000001
H      25.667415999999999      5.898260000000001     18.690735000000000
C      26.133437000000001     10.789500000000000     21.649500000000000
C      25.438031599999999     11.817379700000000     22.356284010000000
C      25.438031599999999      9.761620300000001     20.942715990000000
C      26.146061199999998     12.895610400000001     22.913253480000002
C      26.146061199999998      8.683389600000002     20.385746520000001
C      25.477515799999999     13.978156900000002     23.575872510000000
C      25.477515799999999      7.600843100000001     19.723127490000000
C      23.984905599999998     11.742572500000001     22.695748169999998
C      23.984905599999998      9.836427500000001     20.603251829999998
C      23.031912800000001     12.544592000000002     22.087252889999998
C      23.031912800000001      9.034408000000001     21.211747109999997
C      21.731083000000002     12.555381500000001     22.527748050000000
C      21.731083000000002      9.023618500000001     20.771251950000000
C      21.344567600000001     11.761274300000000     23.576882820000002
C      21.344567600000001      9.817725700000000     19.722117179999998
C      22.270969000000001     10.962851300000001     24.193604909999998
C      22.270969000000001     10.616148700000000     19.105395089999998
C      23.579588200000000     10.952061800000001     23.762202539999997
C      23.579588200000000     10.626938200000001     19.536797459999999
H      24.509750000000000     13.961613000000002     23.582078700000000
H      24.509750000000000      7.617387000000001     19.716921299999999
H      23.319851999999997     13.120032000000002     21.342077100000001
H      23.319851999999997      8.458968000000000     21.956922899999999
H      21.044809999999998     13.098453000000001     22.062283799999999
H      21.044809999999998      8.480547000000001     21.236716200000000
H      20.389426000000000     11.746169000000002     23.820223200000001
H      20.389426000000000      9.832831000000001     19.478776799999999
H      22.041315999999998     10.357920000000000     24.921461100000002
H      22.041315999999998     11.221080000000001     18.377538900000001
H      24.294870000000000     10.393885000000001     24.194037899999998
H      24.294870000000000     11.185115000000001     19.104962100000002
C      26.164594600000001     14.983738299999999     24.168202829999998
H      25.667415999999999     15.680740000000000     24.608264999999999
C      27.555405400000001      6.595261700000001     19.130797170000001
H      28.052584000000000      5.898260000000001     18.690735000000000
C      27.586563000000002     10.789500000000000     21.649500000000000
C      28.281968400000000      9.761620300000001     20.942715990000000
C      28.281968400000000     11.817379700000000     22.356284010000000
C      27.573938800000001      8.683389600000002     20.385746520000001
C      27.573938800000001     12.895610400000001     22.913253480000002
C      28.242484200000000      7.600843100000001     19.723127490000000
C      28.242484200000000     13.978156900000002     23.575872510000000
C      29.735094400000001      9.836427500000001     20.603251829999998
C      29.735094400000001     11.742572500000001     22.695748169999998
C      30.688087199999998      9.034408000000001     21.211747109999997
C      30.688087200000002     12.544592000000002     22.087252889999998
C      31.988917000000001      9.023618500000001     20.771251950000000
C      31.988917000000001     12.555381500000001     22.527748050000000
C      32.375432400000001      9.817725700000000     19.722117179999998
C      32.375432400000001     11.761274300000000     23.576882820000002
C      31.449030999999998     10.616148700000000     19.105395089999998
C      31.449031000000002     10.962851300000001     24.193604909999998
C      30.140411799999999     10.626938200000001     19.536797459999999
C      30.140411799999999     10.952061800000001     23.762202539999997
H      29.210249999999998      7.617387000000001     19.716921299999999
H      29.210250000000002     13.961613000000002     23.582078700000000
H      30.400148000000002      8.458968000000000     21.956922899999999
H      30.400148000000002     13.120032000000002     21.342077100000001
H      32.675190000000001      8.480547000000001     21.236716200000000
H      32.675190000000001     13.098453000000001     22.062283799999999
H      33.330573999999999      9.832831000000001     19.478776799999999
H      33.330573999999999     11.746169000000002     23.820223200000001
H      31.678684000000001     11.221080000000001     18.377538900000001
H      31.678684000000001     10.357920000000000     24.921461100000002
H      29.425129999999999     11.185115000000001     19.104962100000002
H      29.425129999999999     10.393885000000001     24.194037899999998
C      27.555405400000001     14.983738299999999     24.168202829999998
H      28.052584000000000     15.680740000000000     24.608264999999999
