140

H      23.319851999999997     12.055467999999999     14.125577099999999
H      22.041315999999998     13.954419999999999     11.161038899999999
H      24.294870000000000     13.990385000000000     11.888462100000000
C      25.438031599999999     13.358120300000000     15.139784010000000
C      26.146061199999998     12.279889600000001     15.696753480000000
C      25.477515799999999     11.197343100000001     16.359372510000000
C      26.164594600000001     10.191761700000001     16.951702829999999
C      23.984905599999998     13.432927500000000     15.479248170000000
C      23.031912800000001     12.630908000000002     14.870752890000000
C      21.731083000000002     12.620118500000000     15.311248050000000
C      21.344567600000001     13.414225699999999     16.360382819999998
C      22.270969000000001     14.212648699999999     16.977104910000001
C      23.579588200000000     14.223438200000000     16.545702540000001
H      24.509750000000000     11.213887000000000     16.365578700000000
H      25.667415999999999      9.494759999999999     17.391764999999999
H      21.044809999999998     12.077047000000000     14.845783800000000
H      20.389426000000000     13.429331000000001     16.603723200000001
C      25.438031599999999     15.413879700000001     13.726215990000000
C      26.146061199999998     16.492110400000001     13.169246520000000
C      25.477515799999999     17.574656900000001     12.506627490000000
C      26.164594600000001     18.580238299999998     11.914297170000001
C      23.984905599999998     15.339072500000000     13.386751830000001
C      23.031912800000001     16.141092000000000     13.995247110000001
C      21.731083000000002     16.151881500000002     13.554751950000000
C      21.344567600000001     15.357774299999999     12.505617180000000
C      22.270969000000001     14.559351299999999     11.888895090000000
C      23.579588200000000     14.548561800000000     12.320297460000001
H      24.509750000000000     17.558112999999999     12.500421299999999
H      25.667415999999999     19.277239999999999     11.474235000000000
H      21.044809999999998     16.694952999999998     14.020216200000000
H      20.389426000000000     15.342669000000001     12.262276800000000
C      26.133437000000001     14.385999999999999     14.433000000000000
H      23.319851999999997     16.716532000000001     14.740422900000000
H      22.041315999999998     14.817580000000000     17.704961099999998
H      24.294870000000000     14.781614999999999     16.977537900000002
H      30.400148000000002     12.055467999999999     14.125577099999999
H      31.678684000000001     13.954419999999999     11.161038899999999
H      29.425129999999999     13.990385000000000     11.888462100000000
C      28.281968400000000     13.358120300000000     15.139784010000000
C      27.573938800000001     12.279889600000001     15.696753480000000
C      28.242484200000000     11.197343100000001     16.359372510000000
C      27.555405399999998     10.191761700000001     16.951702829999999
C      29.735094400000001     13.432927500000000     15.479248170000000
C      30.688087199999998     12.630908000000002     14.870752890000000
C      31.988917000000001     12.620118500000000     15.311248050000000
C      32.375432400000001     13.414225699999999     16.360382819999998
C      31.449030999999998     14.212648699999999     16.977104910000001
C      30.140411799999999     14.223438200000000     16.545702540000001
H      29.210249999999998     11.213887000000000     16.365578700000000
H      28.052584000000000      9.494759999999999     17.391764999999999
H      32.675190000000001     12.077047000000000     14.845783800000000
H      33.330573999999999     13.429331000000001     16.603723200000001
C      28.281968400000000     15.413879700000001     13.726215990000000
C      27.573938800000001     16.492110400000001     13.169246520000000
C      28.242484200000000     17.574656900000001     12.506627490000000
C      27.555405400000001     18.580238299999998     11.914297170000001
C      29.735094400000001     15.339072500000000     13.386751830000001
C      30.688087200000002     16.141092000000000     13.995247110000001
C      31.988917000000001     16.151881500000002     13.554751950000000
C      32.375432400000001     15.357774299999999     12.505617180000000
C      31.449031000000002     14.559351299999999     11.888895090000000
C      30.140411799999999     14.548561800000000     12.320297460000001
H      29.210250000000002     17.558112999999999     12.500421299999999
H      28.052584000000000     19.277239999999999     11.474235000000000
H      32.675190000000001     16.694952999999998     14.020216200000000
H      33.330573999999999     15.342669000000001     12.262276800000000
C      27.586562999999998     14.385999999999999     14.433000000000000
H      30.400147999999998     16.716532000000001     14.740422900000000
H      31.678684000000001     14.817580000000000     17.704961099999998
H      29.425129999999999     14.781614999999999     16.977537900000002
C      40.985405399999998      6.595261700000001     16.951702829999999
C      39.594594600000001      6.595261700000001     16.951702829999999
H      41.482584000000003      5.898260000000001     17.391764999999999
H      39.097415999999996      5.898260000000001     17.391764999999999
C      41.711968399999996     11.817379700000000     13.726215990000000
C      38.868031600000002     11.817379700000000     13.726215990000000
C      41.003938800000000     12.895610399999999     13.169246520000000
C      39.576061199999998     12.895610399999999     13.169246520000000
C      41.672484200000000     13.978156900000000     12.506627490000000
C      38.907515799999999     13.978156900000000     12.506627490000000
C      43.165094400000001     11.742572500000001     13.386751830000001
C      37.414905599999997     11.742572500000001     13.386751830000001
C      44.118087199999998     12.544592000000000     13.995247110000001
C      36.461912800000000     12.544592000000000     13.995247110000001
C      45.418916999999993     12.555381499999999     13.554751950000000
C      35.161082999999998     12.555381499999999     13.554751950000000
C      45.805432400000001     11.761274300000000     12.505617180000000
C      34.774567599999997     11.761274300000000     12.505617180000000
C      44.879030999999998     10.962851300000001     11.888895090000000
C      35.700969000000001     10.962851300000001     11.888895090000000
C      43.570411800000002     10.952061799999999     12.320297460000001
C      37.009588199999996     10.952061799999999     12.320297460000001
H      42.640250000000002     13.961613000000000     12.500421299999999
H      37.939749999999997     13.961613000000000     12.500421299999999
H      43.830148000000001      8.458968000000000     14.125577099999999
H      36.749851999999997      8.458968000000000     14.125577099999999
H      46.105190000000000     13.098452999999999     14.020216200000000
H      34.474809999999998     13.098452999999999     14.020216200000000
H      46.760573999999998     11.746169000000000     12.262276800000000
H      33.819426000000000     11.746169000000000     12.262276800000000
H      45.108683999999997     10.357920000000000     11.161038899999999
H      35.471316000000002     10.357920000000000     11.161038899999999
H      42.855130000000003     10.393885000000001     11.888462100000000
H      37.724869999999996     10.393885000000001     11.888462100000000
C      41.016562999999998     10.789500000000000     14.433000000000000
C      39.563437000000000     10.789500000000000     14.433000000000000
C      41.711968399999996      9.761620300000001     15.139784010000000
C      38.868031600000002      9.761620300000001     15.139784010000000
C      41.003938800000000      8.683389600000000     15.696753480000000
C      39.576061199999998      8.683389600000000     15.696753480000000
C      41.672484200000000      7.600843100000001     16.359372510000000
C      38.907515799999999      7.600843100000001     16.359372510000000
C      43.165094400000001      9.836427499999999     15.479248170000000
C      37.414905599999997      9.836427499999999     15.479248170000000
C      44.118087199999998      9.034408000000001     14.870752890000000
C      36.461912800000000      9.034408000000001     14.870752890000000
C      45.418916999999993      9.023618500000001     15.311248050000000
C      35.161082999999998      9.023618500000001     15.311248050000000
C      45.805432400000001      9.817725700000000     16.360382819999998
C      34.774567599999997      9.817725700000000     16.360382819999998
C      44.879030999999998     10.616148700000000     16.977104910000001
C      35.700969000000001     10.616148700000000     16.977104910000001
C      43.570411800000002     10.626938200000000     16.545702540000001
C      37.009588199999996     10.626938200000000     16.545702540000001
H      42.640250000000002      7.617387000000001     16.365578700000000
H      37.939749999999997      7.617387000000001     16.365578700000000
H      43.830148000000001     13.120032000000002     14.740422900000000
H      36.749851999999997     13.120032000000002     14.740422900000000
H      46.105190000000000      8.480547000000000     14.845783800000000
H      34.474809999999998      8.480547000000000     14.845783800000000
H      46.760573999999998      9.832831000000001     16.603723200000001
H      33.819426000000000      9.832831000000001     16.603723200000001
H      45.108683999999997     11.221080000000001     17.704961099999998
H      35.471316000000002     11.221080000000001     17.704961099999998
H      42.855130000000003     11.185115000000000     16.977537900000002
H      37.724869999999996     11.185115000000000     16.977537900000002
C      40.985405399999998     14.983738299999999     11.914297170000001
C      39.594594600000001     14.983738299999999     11.914297170000001
H      41.482584000000003     15.680740000000000     11.474235000000000
H      39.097415999999996     15.680740000000000     11.474235000000000
