140

C      40.985405399999998     13.788261700000001     31.384702829999998
C      39.594594600000001     13.788261700000001     31.384702829999998
H      41.482584000000003     13.091260000000002     31.824764999999999
H      39.097415999999996     13.091260000000002     31.824764999999999
C      41.711968399999996     19.010379700000001     28.159215990000000
C      38.868031600000002     19.010379700000001     28.159215990000000
C      41.003938800000000     20.088610400000000     27.602246520000001
C      39.576061199999998     20.088610400000000     27.602246520000001
C      41.672484200000000     21.171156900000000     26.939627489999999
C      38.907515799999999     21.171156900000000     26.939627489999999
C      43.165094400000001     18.935572499999999     27.819751830000001
C      37.414905599999997     18.935572499999999     27.819751830000001
C      44.118087199999998     19.737591999999999     28.428247110000001
C      36.461912800000000     19.737591999999999     28.428247110000001
C      45.418916999999993     19.748381500000001     27.987751950000000
C      35.161082999999998     19.748381500000001     27.987751950000000
C      45.805432400000001     18.954274300000002     26.938617180000001
C      34.774567599999997     18.954274300000002     26.938617180000001
C      44.879030999999998     18.155851300000002     26.321895089999998
C      35.700969000000001     18.155851300000002     26.321895089999998
C      43.570411800000002     18.145061800000001     26.753297459999999
C      37.009588199999996     18.145061800000001     26.753297459999999
H      42.640250000000002     21.154613000000001     26.933421299999999
H      37.939749999999997     21.154613000000001     26.933421299999999
H      43.830148000000001     15.651968000000000     28.558577100000001
H      36.749851999999997     15.651968000000000     28.558577100000001
H      46.105190000000000     20.291453000000001     28.453216200000000
H      34.474809999999998     20.291453000000001     28.453216200000000
H      46.760573999999998     18.939169000000000     26.695276800000002
H      33.819426000000000     18.939169000000000     26.695276800000002
H      45.108683999999997     17.550920000000001     25.594038900000001
H      35.471316000000002     17.550920000000001     25.594038900000001
H      42.855130000000003     17.586884999999999     26.321462099999998
H      37.724869999999996     17.586884999999999     26.321462099999998
C      41.016562999999998     17.982500000000002     28.866000000000000
C      39.563437000000000     17.982500000000002     28.866000000000000
C      41.711968399999996     16.954620300000002     29.572784009999999
C      38.868031600000002     16.954620300000002     29.572784009999999
C      41.003938800000000     15.876389600000001     30.129753479999998
C      39.576061199999998     15.876389600000001     30.129753479999998
C      41.672484200000000     14.793843100000000     30.792372510000000
C      38.907515799999999     14.793843100000000     30.792372510000000
C      43.165094400000001     17.029427500000001     29.912248169999998
C      37.414905599999997     17.029427500000001     29.912248169999998
C      44.118087199999998     16.227408000000000     29.303752889999998
C      36.461912800000000     16.227408000000000     29.303752889999998
C      45.418916999999993     16.216618500000003     29.744248049999999
C      35.161082999999998     16.216618500000003     29.744248049999999
C      45.805432400000001     17.010725700000002     30.793382819999998
C      34.774567599999997     17.010725700000002     30.793382819999998
C      44.879030999999998     17.809148700000001     31.410104910000001
C      35.700969000000001     17.809148700000001     31.410104910000001
C      43.570411800000002     17.819938199999999     30.978702540000000
C      37.009588199999996     17.819938199999999     30.978702540000000
H      42.640250000000002     14.810387000000000     30.798578700000000
H      37.939749999999997     14.810387000000000     30.798578700000000
H      43.830148000000001     20.313032000000000     29.173422899999998
H      36.749851999999997     20.313032000000000     29.173422899999998
H      46.105190000000000     15.673547000000001     29.278783799999999
H      34.474809999999998     15.673547000000001     29.278783799999999
H      46.760573999999998     17.025831000000000     31.036723200000001
H      33.819426000000000     17.025831000000000     31.036723200000001
H      45.108683999999997     18.414080000000002     32.137961099999998
H      35.471316000000002     18.414080000000002     32.137961099999998
H      42.855130000000003     18.378115000000001     31.410537900000001
H      37.724869999999996     18.378115000000001     31.410537900000001
C      40.985405399999998     22.176738300000000     26.347297170000001
C      39.594594600000001     22.176738300000000     26.347297170000001
H      41.482584000000003     22.873740000000002     25.907235000000000
H      39.097415999999996     22.873740000000002     25.907235000000000
C      26.164594600000001     13.788261700000000     19.130797170000001
H      25.667415999999999     13.091260000000000     18.690735000000000
C      26.133437000000001     17.982499999999998     21.649500000000000
C      25.438031599999999     19.010379700000001     22.356284010000000
C      25.438031599999999     16.954620299999998     20.942715990000000
C      26.146061199999998     20.088610400000000     22.913253480000002
C      26.146061199999998     15.876389600000000     20.385746520000001
C      25.477515799999999     21.171156900000000     23.575872510000000
C      25.477515799999999     14.793843100000000     19.723127490000000
C      23.984905599999998     18.935572499999999     22.695748169999998
C      23.984905599999998     17.029427500000001     20.603251829999998
C      23.031912800000001     19.737591999999999     22.087252889999998
C      23.031912800000001     16.227408000000000     21.211747109999997
C      21.731083000000002     19.748381500000001     22.527748050000000
C      21.731083000000002     16.216618499999999     20.771251950000000
C      21.344567600000001     18.954274300000002     23.576882820000002
C      21.344567600000001     17.010725699999998     19.722117179999998
C      22.270969000000001     18.155851299999998     24.193604909999998
C      22.270969000000001     17.809148699999998     19.105395089999998
C      23.579588200000000     18.145061800000001     23.762202539999997
C      23.579588200000000     17.819938199999999     19.536797459999999
H      24.509750000000000     21.154613000000001     23.582078700000000
H      24.509750000000000     14.810386999999999     19.716921299999999
H      23.319851999999997     20.313032000000000     21.342077100000001
H      23.319851999999997     15.651968000000000     21.956922899999999
H      21.044809999999998     20.291453000000001     22.062283799999999
H      21.044809999999998     15.673546999999999     21.236716200000000
H      20.389426000000000     18.939169000000000     23.820223200000001
H      20.389426000000000     17.025831000000000     19.478776799999999
H      22.041315999999998     17.550919999999998     24.921461100000002
H      22.041315999999998     18.414079999999998     18.377538900000001
H      24.294870000000000     17.586884999999999     24.194037899999998
H      24.294870000000000     18.378115000000001     19.104962100000002
C      26.164594600000004     22.176738300000000     24.168202829999998
H      25.667416000000003     22.873740000000002     24.608264999999999
C      27.555405400000001     13.788261700000000     19.130797170000001
H      28.052584000000000     13.091260000000000     18.690735000000000
C      27.586563000000002     17.982499999999998     21.649500000000000
C      28.281968400000000     16.954620299999998     20.942715990000000
C      28.281968400000000     19.010379700000001     22.356284010000000
C      27.573938800000001     15.876389600000000     20.385746520000001
C      27.573938800000001     20.088610400000000     22.913253480000002
C      28.242484200000000     14.793843100000000     19.723127490000000
C      28.242484200000000     21.171156900000000     23.575872510000000
C      29.735094400000001     17.029427500000001     20.603251829999998
C      29.735094400000001     18.935572499999999     22.695748169999998
C      30.688087199999998     16.227408000000000     21.211747109999997
C      30.688087200000002     19.737591999999999     22.087252889999998
C      31.988917000000001     16.216618499999999     20.771251950000000
C      31.988917000000001     19.748381500000001     22.527748050000000
C      32.375432400000001     17.010725699999998     19.722117179999998
C      32.375432400000001     18.954274300000002     23.576882820000002
C      31.449030999999998     17.809148699999998     19.105395089999998
C      31.449031000000002     18.155851299999998     24.193604909999998
C      30.140411799999999     17.819938199999999     19.536797459999999
C      30.140411799999999     18.145061800000001     23.762202539999997
H      29.210249999999998     14.810386999999999     19.716921299999999
H      29.210250000000002     21.154613000000001     23.582078700000000
H      30.400148000000002     15.651968000000000     21.956922899999999
H      30.400148000000002     20.313032000000000     21.342077100000001
H      32.675190000000001     15.673546999999999     21.236716200000000
H      32.675190000000001     20.291453000000001     22.062283799999999
H      33.330573999999999     17.025831000000000     19.478776799999999
H      33.330573999999999     18.939169000000000     23.820223200000001
H      31.678684000000001     18.414079999999998     18.377538900000001
H      31.678684000000001     17.550919999999998     24.921461100000002
H      29.425129999999999     18.378115000000001     19.104962100000002
H      29.425129999999999     17.586884999999999     24.194037899999998
C      27.555405400000001     22.176738300000000     24.168202829999998
H      28.052584000000000     22.873740000000002     24.608264999999999
