140

C      40.985405399999998     13.788261700000001     31.384702829999998
C      39.594594600000001     13.788261700000001     31.384702829999998
H      41.482584000000003     13.091260000000002     31.824764999999999
H      39.097415999999996     13.091260000000002     31.824764999999999
C      41.711968399999996     19.010379700000001     28.159215990000000
C      38.868031600000002     19.010379700000001     28.159215990000000
C      41.003938800000000     20.088610400000000     27.602246520000001
C      39.576061199999998     20.088610400000000     27.602246520000001
C      41.672484200000000     21.171156900000000     26.939627489999999
C      38.907515799999999     21.171156900000000     26.939627489999999
C      43.165094400000001     18.935572499999999     27.819751830000001
C      37.414905599999997     18.935572499999999     27.819751830000001
C      44.118087199999998     19.737591999999999     28.428247110000001
C      36.461912800000000     19.737591999999999     28.428247110000001
C      45.418916999999993     19.748381500000001     27.987751950000000
C      35.161082999999998     19.748381500000001     27.987751950000000
C      45.805432400000001     18.954274300000002     26.938617180000001
C      34.774567599999997     18.954274300000002     26.938617180000001
C      44.879030999999998     18.155851300000002     26.321895089999998
C      35.700969000000001     18.155851300000002     26.321895089999998
C      43.570411800000002     18.145061800000001     26.753297459999999
C      37.009588199999996     18.145061800000001     26.753297459999999
H      42.640250000000002     21.154613000000001     26.933421299999999
H      37.939749999999997     21.154613000000001     26.933421299999999
H      43.830148000000001     15.651968000000000     28.558577100000001
H      36.749851999999997     15.651968000000000     28.558577100000001
H      46.105190000000000     20.291453000000001     28.453216200000000
H      34.474809999999998     20.291453000000001     28.453216200000000
H      46.760573999999998     18.939169000000000     26.695276800000002
H      33.819426000000000     18.939169000000000     26.695276800000002
H      45.108683999999997     17.550920000000001     25.594038900000001
H      35.471316000000002     17.550920000000001     25.594038900000001
H      42.855130000000003     17.586884999999999     26.321462099999998
H      37.724869999999996     17.586884999999999     26.321462099999998
C      41.016562999999998     17.982500000000002     28.866000000000000
C      39.563437000000000     17.982500000000002     28.866000000000000
C      41.711968399999996     16.954620300000002     29.572784009999999
C      38.868031600000002     16.954620300000002     29.572784009999999
C      41.003938800000000     15.876389600000001     30.129753479999998
C      39.576061199999998     15.876389600000001     30.129753479999998
C      41.672484200000000     14.793843100000000     30.792372510000000
C      38.907515799999999     14.793843100000000     30.792372510000000
C      43.165094400000001     17.029427500000001     29.912248169999998
C      37.414905599999997     17.029427500000001     29.912248169999998
C      44.118087199999998     16.227408000000000     29.303752889999998
C      36.461912800000000     16.227408000000000     29.303752889999998
C      45.418916999999993     16.216618500000003     29.744248049999999
C      35.161082999999998     16.216618500000003     29.744248049999999
C      45.805432400000001     17.010725700000002     30.793382819999998
C      34.774567599999997     17.010725700000002     30.793382819999998
C      44.879030999999998     17.809148700000001     31.410104910000001
C      35.700969000000001     17.809148700000001     31.410104910000001
C      43.570411800000002     17.819938199999999     30.978702540000000
C      37.009588199999996     17.819938199999999     30.978702540000000
H      42.640250000000002     14.810387000000000     30.798578700000000
H      37.939749999999997     14.810387000000000     30.798578700000000
H      43.830148000000001     20.313032000000000     29.173422899999998
H      36.749851999999997     20.313032000000000     29.173422899999998
H      46.105190000000000     15.673547000000001     29.278783799999999
H      34.474809999999998     15.673547000000001     29.278783799999999
H      46.760573999999998     17.025831000000000     31.036723200000001
H      33.819426000000000     17.025831000000000     31.036723200000001
H      45.108683999999997     18.414080000000002     32.137961099999998
H      35.471316000000002     18.414080000000002     32.137961099999998
H      42.855130000000003     18.378115000000001     31.410537900000001
H      37.724869999999996     18.378115000000001     31.410537900000001
C      40.985405399999998     22.176738300000000     26.347297170000001
C      39.594594600000001     22.176738300000000     26.347297170000001
H      41.482584000000003     22.873740000000002     25.907235000000000
H      39.097415999999996     22.873740000000002     25.907235000000000
C      38.868031600000002     20.551120300000001     35.375715990000003
C      41.711968399999996     20.551120300000001     35.375715990000003
C      39.576061199999998     19.472889600000002     34.818746519999998
C      41.003938800000000     19.472889600000002     34.818746519999998
C      38.907515799999999     18.390343100000003     34.156127490000003
C      41.672484200000000     18.390343100000003     34.156127490000003
C      39.594594600000001     17.384761700000002     33.563797170000001
C      40.985405399999998     17.384761700000002     33.563797170000001
C      37.414905599999997     20.625927500000000     35.036251829999998
C      43.165094400000001     20.625927500000000     35.036251829999998
C      36.461912800000000     19.823908000000003     35.644747109999997
C      44.118087199999998     19.823908000000003     35.644747109999997
C      35.161082999999998     19.813118500000002     35.204251950000000
C      45.418916999999993     19.813118500000002     35.204251950000000
C      34.774567599999997     20.607225700000001     34.155117179999998
C      45.805432400000001     20.607225700000001     34.155117179999998
C      35.700969000000001     21.405648700000000     33.538395090000002
C      44.879030999999998     21.405648700000000     33.538395090000002
C      37.009588199999996     21.416438200000002     33.969797460000002
C      43.570411800000002     21.416438200000002     33.969797460000002
H      37.939749999999997     18.406887000000001     34.149921300000003
H      42.640250000000002     18.406887000000001     34.149921300000003
H      39.097415999999996     16.687760000000001     33.123734999999996
H      41.482584000000003     16.687760000000001     33.123734999999996
H      36.749851999999997     19.248468000000003     36.389922900000002
H      43.830148000000001     19.248468000000003     36.389922900000002
H      34.474809999999998     19.270047000000002     35.669716199999996
H      46.105190000000000     19.270047000000002     35.669716199999996
H      33.819426000000000     20.622331000000003     33.911776799999998
H      46.760573999999998     20.622331000000003     33.911776799999998
H      35.471316000000002     21.147420000000000     39.354461100000002
H      45.108683999999997     21.147420000000000     39.354461100000002
H      37.724869999999996     21.183385000000001     38.627037899999998
H      42.855130000000003     21.183385000000001     38.627037899999998
C      39.563437000000000     21.579000000000001     36.082499999999996
C      41.016562999999998     21.579000000000001     36.082499999999996
C      38.868031600000002     22.606879700000000     36.789284010000003
C      41.711968399999996     22.606879700000000     36.789284010000003
C      39.576061199999998     23.685110399999999     37.346253480000001
C      41.003938800000000     23.685110399999999     37.346253480000001
C      38.907515799999999     24.767656900000002     38.008872510000003
C      41.672484200000000     24.767656900000002     38.008872510000003
C      39.594594600000001     25.773238300000003     38.601202829999998
C      40.985405399999998     25.773238300000003     38.601202829999998
C      37.414905599999997     22.532072500000002     37.128748169999994
C      43.165094400000001     22.532072500000002     37.128748169999994
C      36.461912800000000     23.334092000000002     36.520252890000002
C      44.118087199999998     23.334092000000002     36.520252890000002
C      35.161082999999998     23.344881500000000     36.960748049999999
C      45.418916999999993     23.344881500000000     36.960748049999999
C      34.774567599999997     22.550774300000000     38.009882820000001
C      45.805432400000001     22.550774300000000     38.009882820000001
C      35.700969000000001     21.752351300000001     38.626604909999998
C      44.879030999999998     21.752351300000001     38.626604909999998
C      37.009588199999996     21.741561799999999     38.195202539999997
C      43.570411800000002     21.741561799999999     38.195202539999997
H      37.939749999999997     24.751113000000000     38.015078700000004
H      42.640250000000002     24.751113000000000     38.015078700000004
H      39.097415999999996     26.470240000000000     39.041264999999996
H      41.482584000000003     26.470240000000000     39.041264999999996
H      36.749851999999997     23.909532000000002     35.775077099999997
H      43.830148000000001     23.909532000000002     35.775077099999997
H      34.474809999999998     23.887953000000000     36.495283799999996
H      46.105190000000000     23.887953000000000     36.495283799999996
H      33.819426000000000     22.535669000000002     38.253223200000001
H      46.760573999999998     22.535669000000002     38.253223200000001
H      35.471316000000002     22.010580000000001     32.810538899999997
H      45.108683999999997     22.010580000000001     32.810538899999997
H      37.724869999999996     21.974615000000000     33.537962100000001
H      42.855130000000003     21.974615000000000     33.537962100000001
